<?xml version="1.0" encoding="UTF-8"?>

<!-- generated on 2025-11-24 18:30:30 by Eclipse SUMO netconvert Version 1.23.1
<netconvertConfiguration xmlns:xsi="http://www.w3.org/2001/XMLSchema-instance" xsi:noNamespaceSchemaLocation="http://sumo.dlr.de/xsd/netconvertConfiguration.xsd">

    <input>
        <osm-files value="map.osm"/>
    </input>

    <output>
        <output-file value="map.net.xml"/>
    </output>

    <projection>
        <proj.utm value="true"/>
    </projection>

    <tls_building>
        <tls.guess-signals value="true"/>
        <tls.default-type value="actuated"/>
    </tls_building>

    <edge_removal>
        <remove-edges.by-vclass value="bicycle,pedestrian,rail,truck"/>
    </edge_removal>

    <junctions>
        <junctions.join value="true"/>
    </junctions>

</netconvertConfiguration>
-->

<net version="1.20" junctionCornerDetail="5" limitTurnSpeed="5.50" xmlns:xsi="http://www.w3.org/2001/XMLSchema-instance" xsi:noNamespaceSchemaLocation="http://sumo.dlr.de/xsd/net_file.xsd">

    <location netOffset="-549763.24,-4179614.77" convBoundary="0.00,0.00,3645.77,3595.24" origBoundary="-122.435022,37.762500,-122.393373,37.794806" projParameter="+proj=utm +zone=10 +ellps=WGS84 +datum=WGS84 +units=m +no_defs"/>

    <type id="highway.busway" priority="1" numLanes="1" speed="27.78" allow="bus" oneway="1"/>
    <type id="highway.living_street" priority="2" numLanes="1" speed="2.78" disallow="tram rail_urban rail rail_electric rail_fast ship container cable_car subway aircraft wheelchair scooter drone" oneway="0"/>
    <type id="highway.residential" priority="3" numLanes="1" speed="13.89" disallow="tram rail_urban rail rail_electric rail_fast ship container cable_car subway aircraft wheelchair scooter drone" oneway="0"/>
    <type id="highway.secondary" priority="11" numLanes="1" speed="27.78" disallow="tram rail_urban rail rail_electric rail_fast ship container cable_car subway aircraft wheelchair scooter drone" oneway="0"/>
    <type id="highway.service" priority="1" numLanes="1" speed="5.56" allow="pedestrian delivery bicycle" oneway="0"/>
    <type id="highway.tertiary" priority="10" numLanes="1" speed="22.22" disallow="tram rail_urban rail rail_electric rail_fast ship container cable_car subway aircraft wheelchair scooter drone" oneway="0"/>
    <type id="highway.tertiary_link" priority="5" numLanes="1" speed="22.22" disallow="tram rail_urban rail rail_electric rail_fast ship container cable_car subway aircraft wheelchair scooter drone" oneway="0"/>
    <type id="highway.unclassified" priority="4" numLanes="1" speed="13.89" disallow="tram rail_urban rail rail_electric rail_fast ship container cable_car subway aircraft wheelchair scooter drone" oneway="0"/>
    <type id="railway.light_rail" priority="19" numLanes="1" speed="27.78" allow="rail_urban" oneway="1"/>
    <type id="railway.subway" priority="18" numLanes="1" speed="27.78" allow="subway" oneway="1"/>
    <type id="railway.tram" priority="17" numLanes="1" speed="13.89" allow="tram" oneway="1"/>

    <edge id=":10000754015_0" function="internal">
        <lane id=":10000754015_0_0" index="0" allow="pedestrian delivery bicycle" speed="3.65" length="4.67" shape="2256.60,2769.84 2255.61,2770.89 2254.75,2771.15 2254.03,2770.62 2253.44,2769.30"/>
    </edge>
    <edge id=":10000754016_0" function="internal">
        <lane id=":10000754016_0_0" index="0" allow="pedestrian delivery bicycle" speed="5.05" length="5.02" shape="2261.15,2761.57 2259.79,2761.54 2258.73,2761.95 2258.00,2762.82 2257.58,2764.13"/>
    </edge>
    <edge id=":10000754016_1" function="internal">
        <lane id=":10000754016_1_0" index="0" disallow="tram rail_urban rail rail_electric rail_fast ship container cable_car subway aircraft wheelchair scooter drone" speed="27.78" length="9.40" shape="2261.15,2761.57 2251.88,2760.02"/>
        <lane id=":10000754016_1_1" index="1" disallow="tram rail_urban rail rail_electric rail_fast ship container cable_car subway aircraft wheelchair scooter drone" speed="27.78" length="9.40" shape="2261.68,2758.41 2252.41,2756.86"/>
    </edge>
    <edge id=":10000754016_3" function="internal">
        <lane id=":10000754016_3_0" index="0" allow="pedestrian delivery bicycle" speed="5.04" length="5.00" shape="2254.42,2763.59 2254.46,2762.22 2254.05,2761.17 2253.19,2760.43 2251.88,2760.02"/>
    </edge>
    <edge id=":10000754016_4" function="internal">
        <lane id=":10000754016_4_0" index="0" allow="pedestrian delivery bicycle" speed="3.65" length="4.67" shape="2254.42,2763.59 2255.41,2762.55 2256.27,2762.29 2256.99,2762.82 2257.58,2764.13"/>
    </edge>
    <edge id=":10078999507_0" function="internal">
        <lane id=":10078999507_0_0" index="0" allow="pedestrian delivery bicycle" speed="5.56" length="0.10" shape="1708.42,2679.09 1708.42,2679.09"/>
    </edge>
    <edge id=":10078999507_1" function="internal">
        <lane id=":10078999507_1_0" index="0" allow="pedestrian delivery bicycle" speed="5.56" length="0.10" shape="1705.26,2678.58 1705.26,2678.58"/>
    </edge>
    <edge id=":10078999508_0" function="internal">
        <lane id=":10078999508_0_0" index="0" allow="pedestrian delivery bicycle" speed="3.65" length="4.67" shape="1703.99,2706.34 1703.00,2707.39 1702.15,2707.66 1701.42,2707.14 1700.83,2705.82"/>
    </edge>
    <edge id=":10078999509_0" function="internal">
        <lane id=":10078999509_0_0" index="0" allow="pedestrian delivery bicycle" speed="5.04" length="5.00" shape="1713.01,2670.22 1711.64,2670.18 1710.59,2670.60 1709.86,2671.46 1709.45,2672.77"/>
    </edge>
    <edge id=":10078999509_1" function="internal">
        <lane id=":10078999509_1_0" index="0" disallow="tram rail_urban rail rail_electric rail_fast ship container cable_car subway aircraft wheelchair scooter drone" speed="8.94" length="9.40" shape="1713.01,2670.22 1703.74,2668.67"/>
        <lane id=":10078999509_1_1" index="1" disallow="tram rail_urban rail rail_electric rail_fast ship container cable_car subway aircraft wheelchair scooter drone" speed="8.94" length="9.40" shape="1713.54,2667.06 1704.26,2665.51"/>
    </edge>
    <edge id=":10078999509_3" function="internal">
        <lane id=":10078999509_3_0" index="0" allow="pedestrian delivery bicycle" speed="5.05" length="5.02" shape="1706.29,2672.26 1706.32,2670.88 1705.90,2669.82 1705.04,2669.09 1703.74,2668.67"/>
    </edge>
    <edge id=":10078999509_4" function="internal">
        <lane id=":10078999509_4_0" index="0" allow="pedestrian delivery bicycle" speed="3.65" length="4.67" shape="1706.29,2672.26 1707.27,2671.20 1708.12,2670.94 1708.85,2671.46 1709.45,2672.77"/>
    </edge>
    <edge id=":10170825142_0" function="internal">
        <lane id=":10170825142_0_0" index="0" disallow="tram rail_urban rail rail_electric rail_fast ship container cable_car subway aircraft wheelchair scooter drone" speed="27.78" length="0.30" shape="2718.97,3112.09 2718.93,3112.39"/>
        <lane id=":10170825142_0_1" index="1" disallow="tram rail_urban rail rail_electric rail_fast ship container cable_car subway aircraft wheelchair scooter drone" speed="27.78" length="0.30" shape="2715.82,3111.57 2715.77,3111.87"/>
        <lane id=":10170825142_0_2" index="2" disallow="tram rail_urban rail rail_electric rail_fast ship container cable_car subway aircraft wheelchair scooter drone" speed="27.78" length="0.30" shape="2712.66,3111.05 2712.61,3111.34"/>
        <lane id=":10170825142_0_3" index="3" disallow="tram rail_urban rail rail_electric rail_fast ship container cable_car subway aircraft wheelchair scooter drone" speed="27.78" length="0.30" shape="2709.50,3110.53 2709.45,3110.82"/>
    </edge>
    <edge id=":10172942151_0" function="internal">
        <lane id=":10172942151_0_0" index="0" disallow="tram rail_urban rail rail_electric rail_fast ship container cable_car subway aircraft wheelchair scooter drone" speed="27.78" length="0.30" shape="2703.41,2936.63 2703.71,2936.68"/>
        <lane id=":10172942151_0_1" index="1" disallow="tram rail_urban rail rail_electric rail_fast ship container cable_car subway aircraft wheelchair scooter drone" speed="27.78" length="0.30" shape="2702.89,2939.78 2703.18,2939.83"/>
        <lane id=":10172942151_0_2" index="2" disallow="tram rail_urban rail rail_electric rail_fast ship container cable_car subway aircraft wheelchair scooter drone" speed="27.78" length="0.30" shape="2702.36,2942.94 2702.66,2942.99"/>
    </edge>
    <edge id=":10175747037_0" function="internal">
        <lane id=":10175747037_0_0" index="0" disallow="tram rail_urban rail rail_electric rail_fast ship container cable_car subway aircraft wheelchair scooter drone" speed="8.94" length="8.21" shape="2092.73,2478.43 2092.59,2480.84 2092.87,2482.51 2093.15,2484.18 2093.00,2486.59"/>
        <lane id=":10175747037_0_1" index="1" disallow="tram rail_urban rail rail_electric rail_fast ship container cable_car subway aircraft wheelchair scooter drone" speed="8.94" length="8.21" shape="2092.73,2478.43 2092.09,2480.76 2091.29,2482.25 2090.48,2483.74 2089.84,2486.06"/>
    </edge>
    <edge id=":10175747038_0" function="internal">
        <lane id=":10175747038_0_0" index="0" disallow="tram rail_urban rail rail_electric rail_fast ship container cable_car subway aircraft wheelchair scooter drone" speed="8.94" length="0.30" shape="2063.06,2676.64 2063.01,2676.93"/>
        <lane id=":10175747038_0_1" index="1" disallow="tram rail_urban rail rail_electric rail_fast ship container cable_car subway aircraft wheelchair scooter drone" speed="8.94" length="0.30" shape="2059.90,2676.11 2059.85,2676.41"/>
        <lane id=":10175747038_0_2" index="2" disallow="tram rail_urban rail rail_electric rail_fast ship container cable_car subway aircraft wheelchair scooter drone" speed="8.94" length="0.30" shape="2056.75,2675.58 2056.70,2675.88"/>
    </edge>
    <edge id=":10175747039_0" function="internal">
        <lane id=":10175747039_0_0" index="0" disallow="tram rail_urban rail rail_electric rail_fast ship container cable_car subway aircraft wheelchair scooter drone" speed="8.94" length="8.21" shape="2064.75,2656.70 2064.61,2659.11 2064.89,2660.78 2065.17,2662.45 2065.02,2664.86"/>
        <lane id=":10175747039_0_1" index="1" disallow="tram rail_urban rail rail_electric rail_fast ship container cable_car subway aircraft wheelchair scooter drone" speed="8.94" length="8.21" shape="2061.59,2656.18 2061.45,2658.58 2061.73,2660.26 2062.01,2661.93 2061.87,2664.33"/>
        <lane id=":10175747039_0_2" index="2" disallow="tram rail_urban rail rail_electric rail_fast ship container cable_car subway aircraft wheelchair scooter drone" speed="8.94" length="8.21" shape="2061.59,2656.18 2060.96,2658.50 2060.16,2659.99 2059.35,2661.48 2058.71,2663.81"/>
    </edge>
    <edge id=":10175857575_0" function="internal">
        <lane id=":10175857575_0_0" index="0" disallow="tram rail_urban rail rail_electric rail_fast ship container cable_car subway aircraft wheelchair scooter drone" speed="8.94" length="8.21" shape="2027.72,2878.97 2027.58,2881.38 2027.86,2883.06 2028.14,2884.73 2027.98,2887.14"/>
        <lane id=":10175857575_0_1" index="1" disallow="tram rail_urban rail rail_electric rail_fast ship container cable_car subway aircraft wheelchair scooter drone" speed="8.94" length="8.21" shape="2024.56,2878.46 2024.42,2880.86 2024.71,2882.53 2024.98,2884.20 2024.83,2886.60"/>
        <lane id=":10175857575_0_2" index="2" disallow="tram rail_urban rail rail_electric rail_fast ship container cable_car subway aircraft wheelchair scooter drone" speed="8.94" length="8.21" shape="2024.56,2878.46 2023.93,2880.77 2023.13,2882.26 2022.32,2883.75 2021.67,2886.06"/>
    </edge>
    <edge id=":10281649545_0" function="internal">
        <lane id=":10281649545_0_0" index="0" allow="pedestrian delivery bicycle" speed="5.56" length="0.30" shape="2213.21,2698.18 2212.92,2698.13"/>
    </edge>
    <edge id=":10281649545_1" function="internal">
        <lane id=":10281649545_1_0" index="0" allow="pedestrian delivery bicycle" speed="5.56" length="0.30" shape="2213.45,2694.97 2213.74,2695.02"/>
    </edge>
    <edge id=":10281649546_0" function="internal">
        <lane id=":10281649546_0_0" index="0" allow="pedestrian delivery bicycle" speed="5.56" length="0.10" shape="2245.48,2660.41 2245.48,2660.41"/>
    </edge>
    <edge id=":10281649546_1" function="internal">
        <lane id=":10281649546_1_0" index="0" allow="pedestrian delivery bicycle" speed="5.56" length="0.10" shape="2242.33,2659.87 2242.33,2659.87"/>
    </edge>
    <edge id=":10281649551_0" function="internal">
        <lane id=":10281649551_0_0" index="0" allow="pedestrian delivery bicycle" speed="5.56" length="0.10" shape="2256.84,2768.40 2256.84,2768.40"/>
    </edge>
    <edge id=":10281649551_1" function="internal">
        <lane id=":10281649551_1_0" index="0" allow="pedestrian delivery bicycle" speed="5.56" length="0.10" shape="2253.69,2767.86 2253.69,2767.86"/>
    </edge>
    <edge id=":10281657202_0" function="internal">
        <lane id=":10281657202_0_0" index="0" allow="pedestrian delivery bicycle" speed="3.65" length="4.67" shape="1468.38,3149.60 1469.43,3148.61 1470.30,3148.41 1470.99,3148.98 1471.49,3150.34"/>
    </edge>
    <edge id=":10281657205_0" function="internal">
        <lane id=":10281657205_0_0" index="0" allow="pedestrian delivery bicycle" speed="5.05" length="5.00" shape="1536.43,3122.72 1536.45,3121.35 1536.04,3120.30 1535.17,3119.57 1533.87,3119.15"/>
    </edge>
    <edge id=":10281657205_1" function="internal">
        <lane id=":10281657205_1_0" index="0" disallow="tram rail_urban rail rail_electric rail_fast ship container cable_car subway aircraft wheelchair scooter drone" speed="22.22" length="6.20" shape="1536.43,3122.72 1537.43,3116.60"/>
        <lane id=":10281657205_1_1" index="1" disallow="tram rail_urban rail rail_electric rail_fast ship container cable_car subway aircraft wheelchair scooter drone" speed="22.22" length="6.20" shape="1539.58,3123.24 1540.59,3117.12"/>
        <lane id=":10281657205_1_2" index="2" disallow="tram rail_urban rail rail_electric rail_fast ship container cable_car subway aircraft wheelchair scooter drone" speed="22.22" length="6.20" shape="1542.74,3123.76 1543.75,3117.64"/>
    </edge>
    <edge id=":10538613570_0" function="internal">
        <lane id=":10538613570_0_0" index="0" allow="pedestrian delivery bicycle" speed="5.56" length="0.22" shape="2618.06,2546.62 2617.91,2546.46"/>
    </edge>
    <edge id=":10538613570_1" function="internal">
        <lane id=":10538613570_1_0" index="0" allow="pedestrian delivery bicycle" speed="5.56" length="0.31" shape="2620.14,2544.17 2620.36,2544.39"/>
    </edge>
    <edge id=":10538613571_0" function="internal">
        <lane id=":10538613571_0_0" index="0" allow="pedestrian delivery bicycle" speed="3.65" length="4.67" shape="2622.80,2546.91 2623.07,2548.33 2622.77,2549.17 2621.92,2549.44 2620.51,2549.14"/>
    </edge>
    <edge id=":10740609961_0" function="internal">
        <lane id=":10740609961_0_0" index="0" disallow="tram rail_urban rail rail_electric rail_fast ship container cable_car subway aircraft wheelchair scooter drone" speed="8.94" length="0.10" shape="2008.25,2933.41 2008.33,2933.42"/>
        <lane id=":10740609961_0_1" index="1" disallow="tram rail_urban rail rail_electric rail_fast ship container cable_car subway aircraft wheelchair scooter drone" speed="8.94" length="0.10" shape="2008.78,2930.25 2008.85,2930.26"/>
        <lane id=":10740609961_0_2" index="2" disallow="tram rail_urban rail rail_electric rail_fast ship container cable_car subway aircraft wheelchair scooter drone" speed="8.94" length="0.10" shape="2009.31,2927.10 2009.37,2927.11"/>
    </edge>
    <edge id=":10740784525_0" function="internal">
        <lane id=":10740784525_0_0" index="0" disallow="tram rail_urban rail rail_electric rail_fast ship container cable_car subway aircraft wheelchair scooter drone" speed="22.22" length="0.29" shape="2305.77,2546.82 2305.72,2547.12"/>
        <lane id=":10740784525_0_1" index="1" disallow="tram rail_urban rail rail_electric rail_fast ship container cable_car subway aircraft wheelchair scooter drone" speed="22.22" length="0.29" shape="2302.61,2546.31 2302.56,2546.58"/>
    </edge>
    <edge id=":10802171470_0" function="internal">
        <lane id=":10802171470_0_0" index="0" allow="pedestrian delivery bicycle" speed="3.65" length="4.67" shape="2131.02,2872.31 2130.07,2873.39 2129.22,2873.69 2128.48,2873.19 2127.84,2871.89"/>
    </edge>
    <edge id=":10802171471_0" function="internal">
        <lane id=":10802171471_0_0" index="0" allow="pedestrian delivery bicycle" speed="5.04" length="5.00" shape="2170.82,2874.44 2172.19,2874.48 2173.24,2874.07 2173.98,2873.21 2174.39,2871.90"/>
    </edge>
    <edge id=":10802171471_1" function="internal">
        <lane id=":10802171471_1_0" index="0" allow="pedestrian delivery bicycle" speed="3.65" length="4.67" shape="2170.82,2874.44 2171.87,2875.43 2172.13,2876.29 2171.60,2877.01 2170.28,2877.60"/>
    </edge>
    <edge id=":10802171471_2" function="internal">
        <lane id=":10802171471_2_0" index="0" allow="pedestrian delivery bicycle" speed="5.05" length="5.01" shape="2172.84,2881.17 2172.87,2879.81 2172.46,2878.75 2171.59,2878.02 2170.28,2877.60"/>
    </edge>
    <edge id=":10802171471_3" function="internal">
        <lane id=":10802171471_3_0" index="0" disallow="tram rail_urban rail rail_electric rail_fast ship container cable_car subway aircraft wheelchair scooter drone" speed="8.94" length="9.40" shape="2172.84,2881.17 2174.39,2871.90"/>
        <lane id=":10802171471_3_1" index="1" disallow="tram rail_urban rail rail_electric rail_fast ship container cable_car subway aircraft wheelchair scooter drone" speed="8.94" length="9.40" shape="2176.00,2881.70 2177.55,2872.43"/>
    </edge>
    <edge id=":10802171472_0" function="internal">
        <lane id=":10802171472_0_0" index="0" allow="pedestrian delivery bicycle" speed="5.56" length="0.31" shape="2165.25,2876.74 2164.94,2876.69"/>
    </edge>
    <edge id=":10802171472_1" function="internal">
        <lane id=":10802171472_1_0" index="0" allow="pedestrian delivery bicycle" speed="5.56" length="0.27" shape="2165.52,2873.54 2165.79,2873.59"/>
    </edge>
    <edge id=":10802171476_0" function="internal">
        <lane id=":10802171476_0_0" index="0" allow="pedestrian delivery bicycle" speed="6.15" length="7.79" shape="2176.79,2895.99 2175.51,2895.34 2174.74,2894.00 2174.48,2891.96 2174.74,2889.22"/>
    </edge>
    <edge id=":10802171476_1" function="internal">
        <lane id=":10802171476_1_0" index="0" allow="pedestrian delivery bicycle" speed="3.65" length="4.67" shape="2176.79,2895.99 2175.76,2894.98 2175.52,2894.12 2176.07,2893.41 2177.40,2892.85"/>
    </edge>
    <edge id=":10802171476_2" function="internal">
        <lane id=":10802171476_2_0" index="0" disallow="tram rail_urban rail rail_electric rail_fast ship container cable_car subway aircraft wheelchair scooter drone" speed="8.94" length="9.40" shape="2170.03,2897.96 2171.58,2888.69"/>
        <lane id=":10802171476_2_1" index="1" disallow="tram rail_urban rail rail_electric rail_fast ship container cable_car subway aircraft wheelchair scooter drone" speed="8.94" length="9.40" shape="2173.19,2898.49 2174.74,2889.22"/>
    </edge>
    <edge id=":10802171476_4" function="internal">
        <lane id=":10802171476_4_0" index="0" allow="pedestrian delivery bicycle" speed="6.06" length="7.82" shape="2173.19,2898.49 2173.85,2895.79 2174.76,2893.95 2175.95,2892.97 2177.40,2892.85"/>
    </edge>
    <edge id=":10802171478_0" function="internal">
        <lane id=":10802171478_0_0" index="0" allow="pedestrian delivery bicycle" speed="4.48" length="3.88" shape="2134.38,2871.11 2133.00,2870.96 2131.98,2871.07 2131.33,2871.46 2131.04,2872.11"/>
    </edge>
    <edge id=":10802171478_1" function="internal">
        <lane id=":10802171478_1_0" index="0" allow="pedestrian delivery bicycle" speed="5.56" length="10.27" shape="2134.38,2871.11 2131.67,2870.22 2129.88,2868.70 2129.02,2866.56 2129.08,2863.80"/>
    </edge>
    <edge id=":10802171478_2" function="internal">
        <lane id=":10802171478_2_0" index="0" allow="pedestrian delivery bicycle" speed="3.65" length="4.67" shape="2134.38,2871.11 2133.34,2870.11 2133.09,2869.25 2133.63,2868.53 2134.95,2867.96"/>
    </edge>
    <edge id=":10802171478_3" function="internal">
        <lane id=":10802171478_3_0" index="0" allow="pedestrian delivery bicycle" speed="5.12" length="5.15" shape="2132.24,2864.33 2132.21,2865.70 2132.66,2866.76 2133.57,2867.51 2134.95,2867.96"/>
    </edge>
    <edge id=":10802171478_4" function="internal">
        <lane id=":10802171478_4_0" index="0" allow="pedestrian delivery bicycle" speed="5.56" length="7.87" shape="2132.24,2864.33 2131.04,2872.11"/>
    </edge>
    <edge id=":10802171478_5" function="internal">
        <lane id=":10802171478_5_0" index="0" allow="pedestrian delivery bicycle" speed="3.65" length="4.67" shape="2132.24,2864.33 2131.25,2865.38 2130.39,2865.64 2129.67,2865.11 2129.08,2863.80"/>
    </edge>
    <edge id=":10802171478_6" function="internal">
        <lane id=":10802171478_6_0" index="0" allow="pedestrian delivery bicycle" speed="5.56" length="7.99" shape="2127.87,2871.69 2129.08,2863.80"/>
    </edge>
    <edge id=":10802171478_7" function="internal">
        <lane id=":10802171478_7_0" index="0" allow="pedestrian delivery bicycle" speed="5.56" length="9.18" shape="2127.87,2871.69 2128.55,2869.62 2129.96,2868.31 2132.09,2867.75 2134.95,2867.96"/>
    </edge>
    <edge id=":10802171478_8" function="internal">
        <lane id=":10802171478_8_0" index="0" allow="pedestrian delivery bicycle" speed="3.65" length="4.67" shape="2127.87,2871.69 2128.82,2870.61 2129.66,2870.31 2130.40,2870.81 2131.04,2872.11"/>
    </edge>
    <edge id=":10802171480_0" function="internal">
        <lane id=":10802171480_0_0" index="0" disallow="tram rail_urban rail rail_electric rail_fast ship container cable_car subway aircraft wheelchair scooter drone" speed="8.94" length="9.40" shape="2129.72,2840.55 2138.99,2842.09"/>
        <lane id=":10802171480_0_1" index="1" disallow="tram rail_urban rail rail_electric rail_fast ship container cable_car subway aircraft wheelchair scooter drone" speed="8.94" length="9.40" shape="2129.19,2843.71 2138.47,2845.25"/>
        <lane id=":10802171480_0_2" index="2" disallow="tram rail_urban rail rail_electric rail_fast ship container cable_car subway aircraft wheelchair scooter drone" speed="8.94" length="9.40" shape="2128.67,2846.87 2137.94,2848.41"/>
    </edge>
    <edge id=":10802171480_3" function="internal">
        <lane id=":10802171480_3_0" index="0" allow="pedestrian delivery bicycle" speed="6.14" length="7.79" shape="2128.67,2846.87 2131.34,2847.51 2133.19,2848.41 2134.21,2849.57 2134.40,2851.00"/>
    </edge>
    <edge id=":10802171480_4" function="internal">
        <lane id=":10802171480_4_0" index="0" allow="pedestrian delivery bicycle" speed="6.84" length="10.27" shape="2131.23,2850.54 2132.03,2847.83 2133.50,2846.05 2135.65,2845.19 2138.47,2845.25"/>
        <lane id=":10802171480_4_1" index="1" allow="pedestrian delivery bicycle" speed="6.06" length="7.82" shape="2131.23,2850.54 2131.82,2849.22 2133.14,2848.42 2135.18,2848.15 2137.94,2848.41"/>
    </edge>
    <edge id=":10802171480_6" function="internal">
        <lane id=":10802171480_6_0" index="0" allow="pedestrian delivery bicycle" speed="3.65" length="4.67" shape="2131.23,2850.54 2132.20,2849.46 2133.05,2849.18 2133.78,2849.69 2134.40,2851.00"/>
    </edge>
    <edge id=":10802171481_0" function="internal">
        <lane id=":10802171481_0_0" index="0" allow="pedestrian delivery bicycle" speed="5.56" length="0.31" shape="2133.82,2855.00 2133.77,2855.31"/>
    </edge>
    <edge id=":10802171481_1" function="internal">
        <lane id=":10802171481_1_0" index="0" allow="pedestrian delivery bicycle" speed="5.56" length="0.23" shape="2130.62,2854.77 2130.65,2854.54"/>
    </edge>
    <edge id=":10857391118_0" function="internal">
        <lane id=":10857391118_0_0" index="0" allow="tram" speed="13.89" length="0.10" shape="2622.01,2664.07 2622.01,2664.07"/>
    </edge>
    <edge id=":11046934813_0" function="internal">
        <lane id=":11046934813_0_0" index="0" allow="pedestrian delivery bicycle" speed="3.65" length="4.67" shape="2738.33,3172.45 2737.35,3173.50 2736.49,3173.76 2735.77,3173.24 2735.18,3171.92"/>
    </edge>
    <edge id=":11046934814_0" function="internal">
        <lane id=":11046934814_0_0" index="0" disallow="tram rail_urban rail rail_electric rail_fast ship container cable_car subway aircraft wheelchair scooter drone" speed="13.41" length="8.08" shape="2736.29,3154.54 2744.25,3155.90"/>
        <lane id=":11046934814_0_1" index="1" disallow="tram rail_urban rail rail_electric rail_fast ship container cable_car subway aircraft wheelchair scooter drone" speed="13.41" length="8.08" shape="2735.75,3157.70 2743.72,3159.05"/>
        <lane id=":11046934814_0_2" index="2" disallow="tram rail_urban rail rail_electric rail_fast ship container cable_car subway aircraft wheelchair scooter drone" speed="13.41" length="8.08" shape="2735.21,3160.85 2743.18,3162.21"/>
    </edge>
    <edge id=":11046934814_3" function="internal">
        <lane id=":11046934814_3_0" index="0" allow="pedestrian delivery bicycle" speed="5.68" length="6.59" shape="2735.21,3160.85 2737.33,3161.41 2738.76,3162.24 2739.53,3163.36 2739.61,3164.75"/>
    </edge>
    <edge id=":11046934814_4" function="internal">
        <lane id=":11046934814_4_0" index="0" allow="pedestrian delivery bicycle" speed="6.86" length="10.18" shape="2736.45,3164.23 2737.29,3161.57 2738.79,3159.82 2740.93,3158.98 2743.72,3159.05"/>
        <lane id=":11046934814_4_1" index="1" allow="pedestrian delivery bicycle" speed="6.08" length="7.77" shape="2736.45,3164.23 2737.06,3162.95 2738.39,3162.18 2740.43,3161.94 2743.18,3162.21"/>
    </edge>
    <edge id=":11046934814_6" function="internal">
        <lane id=":11046934814_6_0" index="0" allow="pedestrian delivery bicycle" speed="3.65" length="4.67" shape="2736.45,3164.23 2737.44,3163.18 2738.29,3162.91 2739.02,3163.44 2739.61,3164.75"/>
    </edge>
    <edge id=":11046934815_0" function="internal">
        <lane id=":11046934815_0_0" index="0" allow="pedestrian delivery bicycle" speed="3.65" length="4.67" shape="2723.52,3262.12 2722.54,3263.18 2721.68,3263.44 2720.96,3262.92 2720.37,3261.60"/>
    </edge>
    <edge id=":11046934816_0" function="internal">
        <lane id=":11046934816_0_0" index="0" allow="pedestrian delivery bicycle" speed="3.65" length="4.67" shape="2731.80,3192.65 2732.78,3191.60 2733.64,3191.33 2734.36,3191.86 2734.95,3193.17"/>
    </edge>
    <edge id=":11481847196_0" function="internal">
        <lane id=":11481847196_0_0" index="0" disallow="tram rail_urban rail rail_electric rail_fast ship container cable_car subway aircraft wheelchair scooter drone" speed="11.18" length="8.00" shape="2342.14,2796.69 2340.83,2804.59"/>
        <lane id=":11481847196_0_1" index="1" disallow="tram rail_urban rail rail_electric rail_fast ship container cable_car subway aircraft wheelchair scooter drone" speed="11.18" length="8.00" shape="2338.98,2796.17 2337.67,2804.06"/>
    </edge>
    <edge id=":11481847196_2" function="internal">
        <lane id=":11481847196_2_0" index="0" disallow="tram rail_urban rail rail_electric rail_fast ship container cable_car subway aircraft wheelchair scooter drone" speed="11.18" length="8.40" shape="2334.51,2803.54 2334.42,2801.03 2333.59,2799.33 2332.76,2797.63 2332.67,2795.12"/>
        <lane id=":11481847196_2_1" index="1" disallow="tram rail_urban rail rail_electric rail_fast ship container cable_car subway aircraft wheelchair scooter drone" speed="11.18" length="8.40" shape="2334.51,2803.54 2335.82,2795.65"/>
    </edge>
    <edge id=":11705908409_0" function="internal">
        <lane id=":11705908409_0_0" index="0" allow="pedestrian delivery bicycle" speed="3.65" length="4.67" shape="1753.00,2524.20 1753.99,2523.15 1754.85,2522.90 1755.57,2523.43 1756.15,2524.76"/>
    </edge>
    <edge id=":11725954499_0" function="internal">
        <lane id=":11725954499_0_0" index="0" allow="pedestrian delivery bicycle" speed="3.65" length="4.67" shape="1841.29,2700.60 1840.32,2701.67 1839.46,2701.94 1838.73,2701.43 1838.12,2700.12"/>
    </edge>
    <edge id=":11725954500_0" function="internal">
        <lane id=":11725954500_0_0" index="0" allow="pedestrian delivery bicycle" speed="5.02" length="5.02" shape="1845.46,2693.91 1844.08,2693.87 1843.03,2694.29 1842.30,2695.16 1841.91,2696.48"/>
    </edge>
    <edge id=":11725954500_1" function="internal">
        <lane id=":11725954500_1_0" index="0" disallow="tram rail_urban rail rail_electric rail_fast ship container cable_car subway aircraft wheelchair scooter drone" speed="8.94" length="9.41" shape="1845.46,2693.91 1836.18,2692.36"/>
        <lane id=":11725954500_1_1" index="1" disallow="tram rail_urban rail rail_electric rail_fast ship container cable_car subway aircraft wheelchair scooter drone" speed="8.94" length="9.41" shape="1845.99,2690.75 1836.71,2689.20"/>
        <lane id=":11725954500_1_2" index="2" disallow="tram rail_urban rail rail_electric rail_fast ship container cable_car subway aircraft wheelchair scooter drone" speed="8.94" length="9.41" shape="1846.51,2687.59 1837.23,2686.05"/>
    </edge>
    <edge id=":11725954500_4" function="internal">
        <lane id=":11725954500_4_0" index="0" allow="pedestrian delivery bicycle" speed="5.09" length="5.06" shape="1838.74,2696.00 1838.76,2694.60 1838.34,2693.52 1837.48,2692.78 1836.18,2692.36"/>
    </edge>
    <edge id=":11725954500_5" function="internal">
        <lane id=":11725954500_5_0" index="0" allow="pedestrian delivery bicycle" speed="3.65" length="4.67" shape="1838.74,2696.00 1839.71,2694.94 1840.56,2694.66 1841.30,2695.18 1841.91,2696.48"/>
    </edge>