<?xml version="1.0" encoding="UTF-8"?>

<!-- generated on 2025-11-25 17:03:13.784080 by randomTrips.py UNKNOWN
<configuration>
    <net-file value="map.net.xml"/>
    <output-trip-file value="trips.rou.xml"/>
    <fringe-factor value="5"/>
    <validate value="True"/>
    <end value="500.0"/>
    <period value="2.0"/>
</configuration>
-->

<!-- generated on 2025-11-25 17:03:13 by Eclipse SUMO duarouter Version 1.23.1
<duarouterConfiguration xmlns:xsi="http://www.w3.org/2001/XMLSchema-instance" xsi:noNamespaceSchemaLocation="http://sumo.dlr.de/xsd/duarouterConfiguration.xsd">

    <input>
        <net-file value="map.net.xml"/>
        <route-files value="trips.rou.xml"/>
    </input>

    <output>
        <output-file value="routes.rou.xml"/>
        <alternatives-output value="NUL"/>
    </output>

    <time>
        <begin value="0"/>
        <end value="500.0"/>
    </time>

    <report>
        <no-warnings value="true"/>
        <ignore-errors value="true"/>
        <no-step-log value="true"/>
    </report>

</duarouterConfiguration>
-->

<routes xmlns:xsi="http://www.w3.org/2001/XMLSchema-instance" xsi:noNamespaceSchemaLocation="http://sumo.dlr.de/xsd/routes_file.xsd">
    <vehicle id="0" depart="0.00">
        <route edges="417094964 1112287652 397135724#0 397135724#1 397135724#2 397135729#0 397135729#1 397135729#4 397135729#5 397135729#7 397135729#8 1036844055#1 27397539#0 100400941#1 100400941#3 100400941#4 100400941#7 144346316#1 -144346316#1"/>
    </vehicle>
    <vehicle id="1" depart="2.00">
        <route edges="1112271466#0 1112271467#1 1112271467#4 1112271468 1112271470#0 1112271469#1 1062095136"/>
    </vehicle>
    <vehicle id="2" depart="4.00">
        <route edges="8917695 398675749#3 980893267#0 980893267#1 980893267#2 980893267#3 980893267#5 980893267#6 254758131#1 254758131#2 254758131#5 254758131#6 254758132#1 254758132#2 1050261012 397144558#0 290052331#1 406581247#1 1236509217 746808402#1 -84654238#0 -1236509217 -406581247#1"/>
    </vehicle>
    <vehicle id="3" depart="6.00">
        <route edges="254758125#1 254758125#3 277480564#0 277480564#1 417087411#0 417087411#2 417087411#4 417087403 983872712#0 968937452#1 254758126#1 254758126#4 408572569#1 397136324#0 144346316#1 144346316#2 -144346316#2"/>
    </vehicle>
    <vehicle id="4" depart="8.00">
        <route edges="1035093272#0 27400639#1 1112271467#1 254758131#5 254758131#6 254758132#1 254758132#2 1050261012 397144558#0 290052331#1 406581247#1 1236509217 84654238#0 667569398#2 667569395 417947135 417947134 417101713#0 28841117#1"/>
    </vehicle>
    <vehicle id="5" depart="10.00">
        <route edges="-144346316#11 -144346316#10 -144346316#9 -144346316#8 -144346316#7 -144346316#4 -144346316#3 -144346316#2 -144346316#1 -100400941#7 27166406#2 27166406#3 27166406#4 27166444#1 254758114#1 254758114#4 27166466#9 254297761#1 254297761#2 254297761#3 254297761#4 968937448#1 968937448#2 968937447#1 968937447#2 968937447#3 254758128#1 1035093273#1"/>
    </vehicle>
    <vehicle id="6" depart="12.00">
        <route edges="417166165#1 144489134#0 144489134#1 144489134#4 1030287469#0 746808414 513701212#0 513701212#1 1024170338#0 1024170338#1 589368075#0 -290052331#1 -781122181#1 377646101#2"/>
    </vehicle>
    <vehicle id="7" depart="14.00">
        <route edges="1036844055#1 27397539#0 100400941#1 100400941#3 100400941#4 100400941#7 144346316#1 144346316#2 144346316#3 144346316#4 26988009#2 26988009#3 26988009#4 26988009#5 26988009#6 1388627905#1 968937454#1 254758122#1 254758122#2 254758122#3 1112250558#0 1112250558#1 989334075 406581244#0 406581244#1"/>
    </vehicle>
    <vehicle id="8" depart="16.00">
        <route edges="746808402#1 512523366#1 415726782#2 417094961#0 968937451#1 968937451#2 968937451#3 397135729#0 397135729#1 397135729#4 397135729#5 397135729#7 397135729#8 1036844055#1 27397539#0 100400941#1 -100400941#1"/>
    </vehicle>
    <vehicle id="9" depart="18.00">
        <route edges="721174655#0 28841120#1 721174654 28841121#1 -512523366#1 512523366#1"/>
    </vehicle>
    <vehicle id="10" depart="20.00">
        <route edges="163784093#1 408590436#0 144489134#4 1030287469#0 290080810#1 981636498#1 89782522#0 89782522#1 89782522#2 1024537343#0 1024537343#1"/>
    </vehicle>
    <vehicle id="11" depart="22.00">
        <route edges="968937451#4 968937451#5 1032777735#1 1032777735#2 1032777737#1 1032777737#2 1032777737#3 1032777738 1112271472#0 1032777739#1 440486297#0 440486297#1 1032777740#0 968937449#1 417101716#0 667569398#2 667569395 417947135 417947134 417101713#0 111586257#1 28841123#1 28841123#2 1111952306#0 224316522#1"/>
    </vehicle>
    <vehicle id="12" depart="24.00">
        <route edges="-28841115#5 329596844#4 329596844#5 674757880#1 674757879#1 -512523366#1"/>
    </vehicle>
    <vehicle id="13" depart="26.00">
        <route edges="772972817#2 772972817#3 225806043#1 -225806043#1 -772972816 -619979111#1 -619979111#0 -228201785#2 -228201785#1 -228201785#0 -204884397#1 -204884397#0 88597544#0 88597544#1 88597544#2 417396858 417166168#0 417166168#1 770023605#0 224316520#1 224316520#2 406944778#0 254297759#1 254297759#2 1111706290 397269729 408575054"/>
    </vehicle>
    <vehicle id="14" depart="28.00">
        <route edges="721174655#0 -721174653#0 -111586254#4 -111586254#3 -111586254#2 -111586254#1 -425624293#0 -513676826 -184956229#1 144489134#4 1030287469#0 290080810#1 981636498#1 772972817#1 772972817#2 772972817#3 225806043#1 619979101"/>
    </vehicle>
    <vehicle id="15" depart="30.00">
        <route edges="297445458 980893266#1 91181766#0 91181766#1 91181766#2 86303763#1 86303763#2 1112250559#0 1112250559#1 1112250558#0 1112250558#1 989334074#0 989334074#1 980893267#1 980893267#2 980893267#3 980893267#5 980893267#6"/>
    </vehicle>
    <vehicle id="16" depart="32.00">
        <route edges="25372932#1 25372932#3 25372932#4 25372932#5 25372932#6 -25372932#6 -25372932#5 -25372932#4 -25372932#3 -25372932#1 -100400941#7 27166406#2 27166406#3 27166406#4 27166444#1 968937450#1 1032777735#1 1032777735#2 1032777737#1 1032777737#2 1032777737#3 1032777738 1112271472#0 1112271471#1 417094964 1112287652 397135724#0 397135724#1"/>
    </vehicle>
    <vehicle id="17" depart="34.00">
        <route edges="770522074#0 770522074#1 770522074#2 770522074#3 -144346316#4 -144346316#3 -144346316#2 -144346316#1 -100400941#7 27166406#2 27166406#3 27166406#4 27166444#1 968937450#1 1032777735#1 1032777735#2 1062095135#1 1062095135#2 1062095135#3 254758124#0 254758125#1 254758125#3 277480564#0 277480564#1 417087411#0"/>
    </vehicle>
    <vehicle id="18" depart="36.00">
        <route edges="797255352#3 1032777739#1 440486297#0 440486297#1 1032777740#0 968937449#1 417101716#0 667569398#2 667569395 417947135 417947134 417101713#0 111586257#1 111586254#1 111586254#2 111586254#3 111586254#4 721174653#0 28841122#1 721174652 286003244#11 513676819 397146704"/>
    </vehicle>
    <vehicle id="19" depart="38.00">
        <route edges="513676826 425624293#0 -425624293#0 -513676826 -184956229#1 144489134#4 1030287469#0 290080810#1 981636498#1 772972817#1 772972817#2 772972817#3 225806043#1 -225806043#1"/>
    </vehicle>
    <vehicle id="20" depart="40.00">
        <route edges="-277480564#1 -277480564#0 277480564#0 277480564#1 417087411#0 417087411#2 417087411#4 417087403 983872712#0 968937452#1 968937455#1 254758122#1 254758122#2 254758122#3 1112250558#0"/>
    </vehicle>
    <vehicle id="21" depart="42.00">
        <route edges="-30832504#1 30832504#1 397144790#0 1050261012 397144558#0 290052331#1 406581247#1 1236509217 84654238#0 512523366#1 415726782#2 417094961#0 968937451#1 968937451#2 968937451#3 397135729#0 397135729#1 397135729#4 397135729#5 397135729#7 397135729#8 1036844055#1 27397539#0 100400941#1 100400941#3 100400941#4 100400941#7 144346316#1 144346316#2 144346316#3 144346316#4 144346316#7 144346316#8 144346316#9 144346316#10 144346316#11"/>
    </vehicle>
    <vehicle id="22" depart="44.00">
        <route edges="417087411#4 417087403 983872712#0 968937452#1 254758126#1 254758126#4 408572569#1 397136324#0 25372932#1 25372932#3 25372932#4 25372932#5 25372932#6"/>
    </vehicle>
    <vehicle id="23" depart="46.00">
        <route edges="1112271465 1112271466#0 1112271467#1 1112271467#4 1112271468 1112271470#0 797255352#1 797255352#2 797255352#3 1032777739#1 440486297#0 440486297#1 1032777740#0 968937448#1 968937448#2"/>
    </vehicle>
    <vehicle id="24" depart="48.00">
        <route edges="417166165#0 417166165#1 417166168#0 417166168#1 770023605#0 224316520#1 224316520#2 406944778#0 254297759#1 254297759#2 1111706290 397269729 408575054"/>
    </vehicle>
    <vehicle id="25" depart="50.00">
        <route edges="-8918970 935446073#2 408572569#1 397136324#0 -100400941#7 27166406#2 27166406#3 27166406#4 27166444#1 254758114#1 254758114#4 27166466#9 254297761#1 254297761#2 254297761#3 254297761#4 968937449#1 417101716#0 -84654238#0 -1236509217 -406581247#1 -290052331#1 513701211#2 513701210 290052332#0 981636498#1 772972817#1 772972817#2 772972817#3 225806043#1 619979101"/>
    </vehicle>
    <vehicle id="26" depart="52.00">
        <route edges="-781122181#1 781122181#1 290052331#1 406581247#1 1236509217 84654238#0 512523366#1 415726782#2 417094961#0 254297761#1 254297761#2 254297761#3"/>
    </vehicle>
    <vehicle id="27" depart="54.00">
        <route edges="983872712#0 1032777734 1032777736#0 1032777737#1 1032777737#2 1032777737#3 1032777738 1112271472#0 1032777739#1 440486297#0 440486297#1 1032777740#0 968937449#1 417101716#0 417101714#2"/>
    </vehicle>
    <vehicle id="28" depart="56.00">
        <route edges="770522074#3 -144346316#4 -144346316#3 -144346316#2 -144346316#1 -100400941#7 27166406#2 27166406#3 27166406#4 27166444#1 254758114#1 254758114#4 254758114#7 254758114#8 674757886#1 674757886#2 674757885#1"/>
    </vehicle>
    <vehicle id="29" depart="58.00">
        <route edges="133733593#1 254297764#1 254297764#2 721174655#0 28841120#1 721174654 29023785#1 397146713#0 111586257#1"/>
    </vehicle>
    <vehicle id="30" depart="60.00">
        <route edges="1032777737#3 1032777738 1112271472#0 1112271471#1 417094964 1112287652 397135724#0 397135724#1 397135724#2 397135729#0 397135729#1 254758114#4 27166466#9 968937451#1 968937451#2"/>
    </vehicle>
    <vehicle id="31" depart="62.00">
        <route edges="86303763#1 86303763#2 1112250559#0 1112250559#1 1112250557#0 1112250557#1 1032777734 1032777736#0 1032777737#1 1032777737#2 1032777737#3 1032777738 1112271472#0 1032777739#1 440486297#0 440486297#1 1032777740#0 968937449#1 417101716#0 667569398#2 667569395 417947135 417947134 417101713#0 111586257#1 28841123#1 28841123#2 1111952306#0 224316520#1 224316520#2 406944778#0 254297759#1 254297759#2 1111706290 224316514#0 224316514#1"/>
    </vehicle>
    <vehicle id="32" depart="64.00">
        <route edges="417396858 417166168#0 417166168#1 770023605#0 224316520#1 224316520#2 406944778#0 254297764#1 254297764#2 721174655#0 28841120#1 721174654 28841121#1 415726782#2 417094961#0 968937451#1 968937451#2 968937451#3 397135729#0 397135729#1 397135729#4 397135729#5 397135729#7 397135729#8 1036844055#1 27397539#0 100400941#1 100400941#3 100400941#4 100400941#7 144346316#1 144346316#2 144346316#3 144346316#4 26988009#2 26988009#3 26988009#4 26988009#5 26988009#6 1388627905#1 254758115#1 254758115#2"/>
    </vehicle>
    <vehicle id="33" depart="66.00">
        <route edges="1112271465 1112271466#0 1112271467#1 1112271467#4 1112271468 1112271470#0 797255352#1 797255352#2 797255352#3 1112271471#1 417094964 1112287652"/>
    </vehicle>
    <vehicle id="34" depart="68.00">
        <route edges="377646101#3 30832504#1 397144790#0 1050261012 397144558#0 513701211#2 513701210 290052332#0 981636499#1 981636499#2 163784093#1 408590436#0 184956229#1 513676826 425624293#0 111586254#1 111586254#2"/>
    </vehicle>
    <vehicle id="35" depart="70.00">
        <route edges="397143832#1 30832504#1 397144790#0 1050261012 397144558#0 290052331#1 406581247#1 1236509217 84654238#0 512523366#1 415726782#2 417094961#0 968937451#1 968937451#2 968937451#3 397135729#0 397135729#1 397135729#4 397135729#5 397135729#7 397135729#8 502795940#9 502795940#10 935446073#1"/>
    </vehicle>
    <vehicle id="36" depart="72.00">
        <route edges="254297764#2 721174655#0 28841120#1 721174654 28841121#1 415726782#2 417094961#0 968937451#1 968937451#2 968937451#3 968937451#4 968937451#5 1032777735#1 1032777735#2 1062095135#1 1062095135#2"/>
    </vehicle>
    <vehicle id="37" depart="74.00">
        <route edges="-28841115#5 -28841115#2 -28841115#1 286003244#7 286003244#8 286003244#9 286003244#10 -721174652 -28841122#1 -721174653#0 -111586254#4 -111586254#3 -111586254#2 -111586254#1 -425624293#0 -513676826 -184956229#1 144489134#4 1030287469#0 290080810#1 981636498#1 772972817#1 772972817#2 772972817#3 225806043#1 -225806043#1"/>
    </vehicle>
    <vehicle id="38" depart="76.00">
        <route edges="-417099350 8921866 681183503 29023785#1 397146713#0 28841117#1 746808418#0 746808418#1 513701212#0 513701212#1 1024170338#0 1024170338#1 589368075#0 968937446#2 968937446#3 84734271#1 797255352#1 797255352#2 797255352#3 1112271471#1 417094964"/>
    </vehicle>
    <vehicle id="39" depart="78.00">
        <route edges="674757886#2 674757880#1 674757879#1 -512523366#1 -84654238#0 -1236509217 -406581247#1 968937446#2 968937446#3 968937447#1 968937447#2 968937447#3 254758132#1"/>
    </vehicle>
    <vehicle id="40" depart="80.00">
        <route edges="-25372932#6 -25372932#5 -25372932#4 -25372932#3 -25372932#1 -100400941#7 27166406#2 27166406#3 27166406#4 27166444#1 254758114#1 254758114#4 27166466#9 254297761#1 254297761#2 254297761#3 254297761#4"/>
    </vehicle>
    <vehicle id="41" depart="82.00">
        <route edges="989334074#1 980893267#1 980893267#2 980893267#3 980893267#5 980893267#6 254758131#1 254758131#2 254758131#5 254758131#6 254758132#1 254758132#2 1050261012 397144558#0 513701211#2 513701210 290052332#0 981636499#1 981636499#2 163784093#1 408590436#0 184956229#1 513676826 425624293#0 111586254#1 111586254#2 111586254#3 111586254#4 721174653#0 28841122#1 721174652 1041351160 1041351161 29023741#0"/>
    </vehicle>
    <vehicle id="42" depart="84.00">
        <route edges="980893266#1 91181766#0 91181766#1 91181766#2 86303763#1 86303763#2 1112250559#0 1112250559#1 1112250557#0 1112250557#1 968937452#1 254758126#1 254758126#4 408572569#1 397136324#0 -100400941#7 27166406#2 27166406#3 27166406#4 935446073#1 8918970"/>
    </vehicle>
    <vehicle id="43" depart="86.00">
        <route edges="47172306#1 47172306#2 47172306#3 47172306#4 -47172306#4 -47172306#3 -47172306#2 -47172306#1 255330068#0 255330068#1 255330068#2 88597544#0 88597544#1 88597544#2 417396858 417166168#0 417166168#1 770023605#0 224316520#1 224316520#2 406944778#0 254297764#1 254297764#2 721174655#0 28841122#1 721174652 1041351160 1041351161 329596844#0"/>
    </vehicle>
    <vehicle id="44" depart="88.00">
        <route edges="1112271465 1112271466#0 1112271467#1 254758131#5 254758131#6 254758132#1 254758132#2 1050261012 397144558#0 290052331#1 406581247#1 1236509217 84654238#0 417101714#2"/>
    </vehicle>
    <vehicle id="45" depart="90.00">
        <route edges="-417099350 8921866 681183503 28841121#1 415726782#2 417094961#0 968937451#1 968937451#2 968937451#3 397135729#0 397135729#1 397135729#4 397135729#5 397135729#7 397135729#8 1036844055#1 27397539#0 100400941#1 100400941#3 100400941#4 100400941#7 144346316#1 144346316#2 144346316#3 144346316#4 26988009#2 26988009#3"/>
    </vehicle>
    <vehicle id="46" depart="92.00">
        <route edges="26988009#6 1388627905#1 254758115#1 254758115#2 254758115#5 968937450#1 968937453#1"/>
    </vehicle>
    <vehicle id="47" depart="94.00">
        <route edges="86303763#1 86303763#2 1112250559#0 1112250559#1 1112250557#0 1112250557#1 1032777734 1032777736#0 1032777737#1 1032777737#2 1032777737#3 1032777738 1112271472#0 1032777739#1 440486297#0 440486297#1 1032777740#0 968937449#1 417101716#0 667569398#2 667569395 417947135 417947134 417101713#0 111586257#1 111586254#1 111586254#2 111586254#3"/>
    </vehicle>
    <vehicle id="48" depart="96.00">
        <route edges="286003244#7 286003244#8 286003244#9 286003244#10 -721174652 -28841122#1 -721174653#0 -111586254#4 -111586254#3 -111586254#2 -111586254#1 -425624293#0 -513676826 -184956229#1 144489134#4 1030287469#0 746808414 513701212#0 513701212#1 1024170338#0 1024170338#1 589368075#0 968937446#2 968937446#3 84734271#1 1112271469#1 1062095136 461017935#0 461017935#1 461017935#2 406581245 417087411#4 417087403 983872712#0 1032777734 1032777736#0"/>
    </vehicle>
    <vehicle id="49" depart="98.00">
        <route edges="91181766#2 86303763#1 86303763#2 1112250559#0 1112250559#1 1112250557#0 1112250557#1 1032777734 1032777736#0 1032777737#1 1032777737#2 1032777737#3 1032777738 1112271472#0 1032777739#1 440486297#0 440486297#1 1032777740#0 968937449#1 417101716#0 667569398#2 667569395 417947135 417947134 417101713#0 111586257#1 111586254#1 111586254#2 111586254#3 111586254#4 721174653#0 28841120#1 721174654 -681183503 -8921866 417099350 -417099350 8921866"/>
    </vehicle>
    <vehicle id="50" depart="100.00">
        <route edges="111586254#2 111586254#3 111586254#4 721174653#0 28841120#1 721174654 28841121#1 -512523366#1 417101714#2 667569395 417947135 417947134 417101713#0"/>
    </vehicle>
    <vehicle id="51" depart="102.00">
        <route edges="406581244#0 406581244#1 91181766#0 91181766#1 91181766#2 86303763#1 86303763#2 1112250559#0 1112250559#1 1112250557#0 1112250557#1 1032777734 1032777736#0 1032777737#1 1032777737#2 1032777737#3 1032777738 1112271472#0 1032777739#1 440486297#0 440486297#1 1032777740#0 968937449#1 417101716#0 -84654238#0 -1236509217 -406581247#1 -290052331#1 513701211#2 513701210 290052332#0 981636498#1 89782522#0 89782522#1 89782522#2 1024537343#0"/>
    </vehicle>
    <vehicle id="52" depart="104.00">
        <route edges="619979115#0 619979115#1 417166165#0 417166165#1 417166168#0 417166168#1 770023605#0 224316520#1 224316520#2 406944778#0 254297764#1 254297764#2 721174655#0 28841122#1 721174652 1041351160 1041351161 329596844#0 329596844#1"/>
    </vehicle>
    <vehicle id="53" depart="106.00">
        <route edges="674757879#1 674757887#2 674757887#3 286003244#1 286003244#2 286003244#3 286003244#4 286003244#7 286003244#8 286003244#9 286003244#10 1041351160 1041351161 29023741#0"/>
    </vehicle>
    <vehicle id="54" depart="108.00">
        <route edges="-100400941#3 -100400941#1 100400941#1 100400941#3 100400941#4 27166406#2 27166406#3 27166406#4 27166444#1 254758114#1 254758114#4 254758114#7 254758114#8 286003244#1 286003244#2 286003244#3 286003244#4 286003244#7 286003244#8 286003244#9 286003244#10 286003244#11 513676819 397146704 1046480747 1046480748 224316514#0 224316514#1 224316514#2"/>
    </vehicle>
    <vehicle id="55" depart="110.00">
        <route edges="-144346316#11 -144346316#10 -144346316#9 -144346316#8 -144346316#7 -144346316#4 -144346316#3 -144346316#2 -144346316#1 -100400941#7 27166406#2 27166406#3 27166406#4 27166444#1 254758114#1 254758114#4 27166466#9 254297761#1 254297761#2 254297761#3 254297761#4 968937448#1 968937448#2 968937447#1"/>
    </vehicle>
    <vehicle id="56" depart="112.00">
        <route edges="86303763#2 1112250559#0 1112250559#1 1112250557#0 1112250557#1 1032777734 1032777736#0 1062095135#1 1062095135#2 1062095135#3 254758124#0 254758131#1 254758131#2 1112271467#4 1112271468 1112271470#0 797255352#1 797255352#2 797255352#3"/>
    </vehicle>
    <vehicle id="57" depart="114.00">
        <route edges="133733593#1 254297764#1 254297764#2 721174655#0 -721174653#0 -111586254#4 -111586254#3 -111586254#2 -111586254#1 -425624293#0 -513676826 -184956229#1 144489134#4 1030287469#0 290080810#1 981636498#1 772972817#1 772972817#2 772972817#3 225806043#1 -225806043#1 -772972816 -619979111#1 -619979111#0 -228201785#2 -228201785#1 -228201785#0 -204884397#1 -204884397#0 -228196396#1"/>
    </vehicle>
    <vehicle id="58" depart="116.00">
        <route edges="86303763#2 1112250559#0 1112250559#1 1112250557#0 1112250557#1 1032777734 1032777736#0 1032777737#1 1032777737#2 1032777737#3 1032777738 1112271472#0 1112271471#1 417094964 1112287652 397135724#0 397135724#1 397135724#2 968937451#4"/>
    </vehicle>
    <vehicle id="59" depart="118.00">
        <route edges="-28841115#2 -28841115#1 286003244#7"/>
    </vehicle>
    <vehicle id="60" depart="120.00">
        <route edges="-25372932#6 -25372932#5 -25372932#4 -25372932#3 -25372932#1 -100400941#7 27166406#2 27166406#3 27166406#4 27166444#1 254758114#1 254758114#4 27166466#9 254297761#1 254297761#2 254297761#3 254297761#4 968937449#1 417101716#0 -84654238#0 -1236509217 -406581247#1 -290052331#1 513701211#2 513701210 290052332#0 981636498#1 772972818 377646102 627706100"/>
    </vehicle>
    <vehicle id="61" depart="122.00">
        <route edges="619979115#0 619979115#1 417166165#0 417166165#1 417166168#0 417166168#1 770023605#0 224316520#1 224316520#2 406944778#0 254297764#1 254297764#2 721174655#0 28841120#1 721174654 28841121#1 415726782#2 417094961#0 968937451#1 968937451#2 968937451#3 397135729#0 397135729#1 397135729#4 397135729#5 397135729#7 397135729#8 1036844055#1 27397539#0 100400941#1 100400941#3 100400941#4 100400941#7 144346316#1 144346316#2 144346316#3 144346316#4 -770522074#3 -770522074#2 -770522074#1"/>
    </vehicle>
    <vehicle id="62" depart="124.00">
        <route edges="27166466#5 27166466#6 27166466#9 254297761#1 254297761#2 254297761#3 254297761#4 968937448#1 968937448#2 84734271#1 797255352#1 797255352#2 797255352#3 1112271471#1 417094964 1112287652 397135724#0"/>
    </vehicle>
    <vehicle id="63" depart="126.00">
        <route edges="1112271465 1112271466#0 1112271467#1 254758131#5 254758131#6 254758132#1 254758132#2 1050261012 397144558#0 513701211#2 513701210 290052332#0 981636498#1 89782522#0"/>
    </vehicle>
    <vehicle id="64" depart="128.00">
        <route edges="254758125#1 254758125#3 277480564#0 277480564#1 417087411#0 980893267#6 254758131#1 254758131#2 254758131#5 254758131#6 254758132#1 254758132#2 1050261012 397144558#0 513701211#2 513701210 290052332#0 981636499#1 981636499#2 163784093#1 408590436#0 184956229#1 513676826 425624293#0 111586254#1 111586254#2 111586254#3 111586254#4 721174653#0 28841122#1 721174652 286003244#11 513676819 397146704 1046480747"/>
    </vehicle>
    <vehicle id="65" depart="130.00">
        <route edges="30832507#1 30832507#2 397143832#0 397143832#1 30832504#1 397144790#0 1050261012 397144558#0 513701211#2 513701210 290052332#0 981636498#1 772972817#1 772972817#2 772972817#3 225806043#1 619979101"/>
    </vehicle>
    <vehicle id="66" depart="132.00">
        <route edges="1032777735#1 1032777735#2 1032777737#1 1032777737#2 1032777737#3 1032777738 1112271472#0 1032777739#1 440486297#0 440486297#1 1032777740#0 968937449#1 417101716#0 667569398#2 667569395 417947135 417947134 417101713#0 111586257#1 28841123#1 28841123#2 1111952306#0 224316520#1 224316520#2 406944778#0 254297759#1 254297759#2 1111706290 224316514#0"/>
    </vehicle>
    <vehicle id="67" depart="134.00">
        <route edges="989334074#1 980893267#1 980893267#2 980893267#3 980893267#5 980893267#6 254758131#1 254758131#2 254758131#5 254758131#6 254758132#1 254758132#2 1050261012 397144558#0 513701211#2 513701210 290052332#0 981636498#1 772972817#1 772972817#2 772972817#3 225806043#1 -225806043#1 -772972816 -619979111#1 -619979111#0 -228201785#2 -228201785#1 -228201785#0 -204884397#1 -204884397#0 88597544#0 88597544#1 88597544#2 417396858 417166168#0 417166168#1"/>
    </vehicle>
    <vehicle id="68" depart="136.00">
        <route edges="254758132#1 254758132#2 1050261012 397144558#0 513701211#2 513701210 290052332#0"/>
    </vehicle>
    <vehicle id="69" depart="138.00">
        <route edges="-47172306#3 -47172306#2 -47172306#1 255330068#0 255330068#1 255330068#2 88597544#0 88597544#1 88597544#2 417396858 417166168#0 417166168#1 770023605#0 224316520#1 224316520#2 406944778#0 254297759#1 254297759#2 1111706290"/>
    </vehicle>
    <vehicle id="70" depart="140.00">
        <route edges="144489134#4 1030287469#0 746808414 513701212#0 513701212#1 1024170338#0 1024170338#1 589368075#0 968937446#2 968937446#3 84734271#1 1112271469#1 1062095136 461017935#0 461017935#1 461017935#2 406581245 406581246#0 406581246#1 989334073 989334075 406581244#0 406581244#1"/>
    </vehicle>
    <vehicle id="71" depart="142.00">
        <route edges="-25372932#6 -25372932#5 -25372932#4 -25372932#3 -25372932#1 -100400941#7 27166406#2 27166406#3 27166406#4 27166444#1 254758114#1 254758114#4 254758114#7 254758114#8 286003244#1 286003244#2 286003244#3 286003244#4 286003244#7 286003244#8 286003244#9 286003244#10 -721174652 -28841122#1 28841120#1 721174654 -681183503 -8921866 417099350"/>
    </vehicle>
    <vehicle id="72" depart="144.00">
        <route edges="797255352#2 797255352#3 1112271471#1 417094964 1112287652 397135724#0 397135724#1 397135724#2 397135729#0 397135729#1 397135729#4 397135729#5 397135729#7 397135729#8 1036844055#1 27397539#0 100400941#1 100400941#3 100400941#4 100400941#7 25372932#1 25372932#3 25372932#4 25372932#5 25372932#6 -25372932#6 -25372932#5"/>
    </vehicle>
    <vehicle id="73" depart="146.00">
        <route edges="1057808747 980893267#0 980893267#1 980893267#2 980893267#3 980893267#5 417087411#2 417087411#4 417087403 983872712#0 1032777734 1032777736#0 1062095135#1 1062095135#2 1062095135#3 461017935#0 461017935#1"/>
    </vehicle>
    <vehicle id="74" depart="148.00">
        <route edges="1032777739#1 440486297#0 440486297#1 1032777740#0 968937449#1 417101716#0 512523366#1 415726782#2 417094961#0 968937451#1 968937451#2 968937451#3 397135729#0 397135729#1 397135729#4 397135729#5 397135729#7 397135729#8 1036844055#1 27397539#0 100400941#1 100400941#3 100400941#4 100400941#7 144346316#1 144346316#2 144346316#3 144346316#4 -770522074#3"/>
    </vehicle>
    <vehicle id="75" depart="150.00">
        <route edges="27166466#2 27166466#5 27166466#6 254758114#7 254758114#8 674757879#1 674757887#2 674757887#3"/>
    </vehicle>
    <vehicle id="76" depart="152.00">
        <route edges="746808396 -513676826 -184956229#1 144489134#4 1030287469#0 746808414 513701212#0 513701212#1 1024170338#0 1024170338#1 589368075#0 968937446#2 968937446#3 84734271#1 797255352#1 797255352#2 797255352#3 1032777739#1 440486297#0 440486297#1 1032777740#0"/>
    </vehicle>
    <vehicle id="77" depart="154.00">
        <route edges="254758125#3 277480563"/>
    </vehicle>
    <vehicle id="78" depart="156.00">
        <route edges="981636498#1 772972818 377646102 627706100 425516613#0 781122181#1 513701211#2 513701210 290052332#0 981636499#1 981636499#2 163784093#1 408590436#0 184956229#1 513676826 425624293#0 -425624293#0 -513676826"/>
    </vehicle>
    <vehicle id="79" depart="158.00">
        <route edges="254758114#1 254758114#4 27166466#9 254297761#1 254297761#2 254297761#3 254297761#4 968937449#1 417101716#0 -84654238#0 -1236509217 -406581247#1 -290052331#1 513701211#2 513701210 290052332#0 981636498#1 772972817#1 772972817#2 772972817#3 225806043#1"/>
    </vehicle>
    <vehicle id="80" depart="160.00">
        <route edges="797255352#3 1032777739#1 440486297#0 440486297#1 1032777740#0 968937449#1 417101716#0 -84654238#0 -1236509217 -406581247#1 -290052331#1 513701211#2 513701210 290052332#0 981636498#1 89782522#0 89782522#1 89782522#2 1024537343#0 1024537343#1 225806056#0 225806056#1 777343790#1 225806055 934194966#0 934194966#1 86334994#1 86334994#3 86334994#4 111560679#1 111560679#3"/>
    </vehicle>
    <vehicle id="81" depart="162.00">
        <route edges="254758125#1 254758125#3 277480564#0 277480564#1 417087411#0 417087411#2 417087411#4 417087403 983872712#0 968937452#1 254758126#1 254758126#4 408572569#1 397136324#0 144346316#1 144346316#2 144346316#3 144346316#4 144346316#7 144346316#8 144346316#9 144346316#10 144346316#11"/>
    </vehicle>
    <vehicle id="82" depart="164.00">
        <route edges="255330068#1 255330068#2 88597544#0 88597544#1 88597544#2 417396858 417166168#0 417166168#1 770023605#0 224316520#1 224316520#2 406944778#0 254297764#1 254297764#2 721174655#0 28841120#1 721174654 28841121#1 415726782#2 417094961#0 968937451#1 968937451#2 968937451#3 397135729#0 397135729#1 397135729#4 397135729#5 397135729#7 397135729#8 502795940#9 502795940#10 935446073#1 8918970"/>
    </vehicle>
    <vehicle id="83" depart="166.00">
        <route edges="329596844#0 329596844#1 -28841115#2 -28841115#1 286003244#7 286003244#8 286003244#9 286003244#10 -721174652 -28841122#1 -721174653#0 -111586254#4 -111586254#3 -111586254#2 -111586254#1 -425624293#0 -513676826 -184956229#1 144489134#4 1030287469#0 290080810#1 981636498#1 772972817#1 772972817#2 772972817#3 225806043#1 -225806043#1 -772972816 -619979111#1 -619979111#0 -228201785#2 -228201785#1 -228201785#0 -204884397#1 -204884397#0 -228196396#1 -228196396#0"/>
    </vehicle>
    <vehicle id="84" depart="168.00">
        <route edges="989334075 406581244#0 406581244#1 91181766#0 91181766#1 91181766#2 86303763#1"/>
    </vehicle>
    <vehicle id="85" depart="170.00">
        <route edges="980893266#0 980893266#1 91181766#0 91181766#1 91181766#2 86303763#1 86303763#2 1112250559#0 1112250559#1 1112250557#0 1112250557#1 1032777734 1032777736#0 1032777737#1 1032777737#2 1032777737#3 1032777738 1112271472#0 1032777739#1 440486297#0 440486297#1 1032777740#0 968937449#1 417101716#0 -84654238#0 -1236509217 -406581247#1 968937446#2 968937446#3"/>
    </vehicle>
    <vehicle id="86" depart="172.00">