<?xml version="1.0" encoding="UTF-8"?>

<!-- generated on 2025-11-25 17:03:13.691440 by randomTrips.py UNKNOWN
<configuration>
    <net-file value="map.net.xml"/>
    <output-trip-file value="trips.rou.xml"/>
    <fringe-factor value="5"/>
    <validate value="True"/>
    <end value="500.0"/>
    <period value="2.0"/>
</configuration>
-->

<routes xmlns:xsi="http://www.w3.org/2001/XMLSchema-instance" xsi:noNamespaceSchemaLocation="http://sumo.dlr.de/xsd/routes_file.xsd">
    <trip id="0" depart="0.00" from="417094964" to="-144346316#1"/>
    <trip id="1" depart="2.00" from="1112271466#0" to="1062095136"/>
    <trip id="2" depart="4.00" from="8917695" to="-406581247#1"/>
    <trip id="3" depart="6.00" from="254758125#1" to="-144346316#2"/>
    <trip id="4" depart="8.00" from="1035093272#0" to="28841117#1"/>
    <trip id="5" depart="10.00" from="-144346316#11" to="1035093273#1"/>
    <trip id="6" depart="12.00" from="417166165#1" to="377646101#2"/>
    <trip id="7" depart="14.00" from="1036844055#1" to="406581244#1"/>
    <trip id="8" depart="16.00" from="746808402#1" to="-100400941#1"/>
    <trip id="9" depart="18.00" from="721174655#0" to="512523366#1"/>
    <trip id="10" depart="20.00" from="163784093#1" to="1024537343#1"/>
    <trip id="11" depart="22.00" from="968937451#4" to="224316522#1"/>
    <trip id="12" depart="24.00" from="-28841115#5" to="-512523366#1"/>
    <trip id="13" depart="26.00" from="772972817#2" to="408575054"/>
    <trip id="14" depart="28.00" from="721174655#0" to="619979101"/>
    <trip id="15" depart="30.00" from="297445458" to="980893267#6"/>
    <trip id="16" depart="32.00" from="25372932#1" to="397135724#1"/>
    <trip id="17" depart="34.00" from="770522074#0" to="417087411#0"/>
    <trip id="18" depart="36.00" from="797255352#3" to="397146704"/>
    <trip id="19" depart="38.00" from="513676826" to="-225806043#1"/>
    <trip id="20" depart="40.00" from="-277480564#1" to="1112250558#0"/>
    <trip id="21" depart="42.00" from="-30832504#1" to="144346316#11"/>
    <trip id="22" depart="44.00" from="417087411#4" to="25372932#6"/>
    <trip id="23" depart="46.00" from="1112271465" to="968937448#2"/>
    <trip id="24" depart="48.00" from="417166165#0" to="408575054"/>
    <trip id="25" depart="50.00" from="-8918970" to="619979101"/>
    <trip id="26" depart="52.00" from="-781122181#1" to="254297761#3"/>
    <trip id="27" depart="54.00" from="983872712#0" to="417101714#2"/>
    <trip id="28" depart="56.00" from="770522074#3" to="674757885#1"/>
    <trip id="29" depart="58.00" from="133733593#1" to="111586257#1"/>
    <trip id="30" depart="60.00" from="1032777737#3" to="968937451#2"/>
    <trip id="31" depart="62.00" from="86303763#1" to="224316514#1"/>
    <trip id="32" depart="64.00" from="417396858" to="254758115#2"/>
    <trip id="33" depart="66.00" from="1112271465" to="1112287652"/>
    <trip id="34" depart="68.00" from="377646101#3" to="111586254#2"/>
    <trip id="35" depart="70.00" from="397143832#1" to="935446073#1"/>
    <trip id="36" depart="72.00" from="254297764#2" to="1062095135#2"/>
    <trip id="37" depart="74.00" from="-28841115#5" to="-225806043#1"/>
    <trip id="38" depart="76.00" from="-417099350" to="417094964"/>
    <trip id="39" depart="78.00" from="674757886#2" to="254758132#1"/>
    <trip id="40" depart="80.00" from="-25372932#6" to="254297761#4"/>
    <trip id="41" depart="82.00" from="989334074#1" to="29023741#0"/>
    <trip id="42" depart="84.00" from="980893266#1" to="8918970"/>
    <trip id="43" depart="86.00" from="47172306#1" to="329596844#0"/>
    <trip id="44" depart="88.00" from="1112271465" to="417101714#2"/>
    <trip id="45" depart="90.00" from="-417099350" to="26988009#3"/>
    <trip id="46" depart="92.00" from="26988009#6" to="968937453#1"/>
    <trip id="47" depart="94.00" from="86303763#1" to="111586254#3"/>
    <trip id="48" depart="96.00" from="286003244#7" to="1032777736#0"/>
    <trip id="49" depart="98.00" from="91181766#2" to="8921866"/>
    <trip id="50" depart="100.00" from="111586254#2" to="417101713#0"/>
    <trip id="51" depart="102.00" from="406581244#0" to="1024537343#0"/>
    <trip id="52" depart="104.00" from="619979115#0" to="329596844#1"/>
    <trip id="53" depart="106.00" from="674757879#1" to="29023741#0"/>
    <trip id="54" depart="108.00" from="-100400941#3" to="224316514#2"/>
    <trip id="55" depart="110.00" from="-144346316#11" to="968937447#1"/>
    <trip id="56" depart="112.00" from="86303763#2" to="797255352#3"/>
    <trip id="57" depart="114.00" from="133733593#1" to="-228196396#1"/>
    <trip id="58" depart="116.00" from="86303763#2" to="968937451#4"/>
    <trip id="59" depart="118.00" from="-28841115#2" to="286003244#7"/>
    <trip id="60" depart="120.00" from="-25372932#6" to="627706100"/>
    <trip id="61" depart="122.00" from="619979115#0" to="-770522074#1"/>
    <trip id="62" depart="124.00" from="27166466#5" to="397135724#0"/>
    <trip id="63" depart="126.00" from="1112271465" to="89782522#0"/>
    <trip id="64" depart="128.00" from="254758125#1" to="1046480747"/>
    <trip id="65" depart="130.00" from="30832507#1" to="619979101"/>
    <trip id="66" depart="132.00" from="1032777735#1" to="224316514#0"/>
    <trip id="67" depart="134.00" from="989334074#1" to="417166168#1"/>
    <trip id="68" depart="136.00" from="254758132#1" to="290052332#0"/>
    <trip id="69" depart="138.00" from="-47172306#3" to="1111706290"/>
    <trip id="70" depart="140.00" from="144489134#4" to="406581244#1"/>
    <trip id="71" depart="142.00" from="-25372932#6" to="417099350"/>
    <trip id="72" depart="144.00" from="797255352#2" to="-25372932#5"/>
    <trip id="73" depart="146.00" from="1057808747" to="461017935#1"/>
    <trip id="74" depart="148.00" from="1032777739#1" to="-770522074#3"/>
    <trip id="75" depart="150.00" from="27166466#2" to="674757887#3"/>
    <trip id="76" depart="152.00" from="746808396" to="1032777740#0"/>
    <trip id="77" depart="154.00" from="254758125#3" to="277480563"/>
    <trip id="78" depart="156.00" from="981636498#1" to="-513676826"/>
    <trip id="79" depart="158.00" from="254758114#1" to="225806043#1"/>
    <trip id="80" depart="160.00" from="797255352#3" to="111560679#3"/>
    <trip id="81" depart="162.00" from="254758125#1" to="144346316#11"/>
    <trip id="82" depart="164.00" from="255330068#1" to="8918970"/>
    <trip id="83" depart="166.00" from="329596844#0" to="-228196396#0"/>
    <trip id="84" depart="168.00" from="989334075" to="86303763#1"/>
    <trip id="85" depart="170.00" from="980893266#0" to="968937446#3"/>
    <trip id="86" depart="172.00" from="772972817#2" to="1030275359#0"/>
    <trip id="87" depart="174.00" from="277480564#0" to="1050261012"/>
    <trip id="88" depart="176.00" from="254758114#1" to="-228196396#1"/>
    <trip id="89" depart="178.00" from="25372932#1" to="989334074#1"/>
    <trip id="90" depart="180.00" from="1112271465" to="674757887#2"/>
    <trip id="91" depart="182.00" from="26988009#6" to="254758132#1"/>
    <trip id="92" depart="184.00" from="968937451#4" to="989334074#4"/>
    <trip id="93" depart="186.00" from="-721174653#0" to="144346316#9"/>
    <trip id="94" depart="188.00" from="980893266#0" to="397146713#0"/>
    <trip id="95" depart="190.00" from="30832507#1" to="619979112#2"/>
    <trip id="96" depart="192.00" from="286003244#9" to="86334994#4"/>
    <trip id="97" depart="194.00" from="-277480564#1" to="1032777738"/>
    <trip id="98" depart="196.00" from="1057808747" to="-770522074#0"/>
    <trip id="99" depart="198.00" from="8917695" to="1112287652"/>
    <trip id="100" depart="200.00" from="290052332#0" to="968937448#1"/>
    <trip id="101" depart="202.00" from="1057808747" to="254758115#2"/>
    <trip id="102" depart="204.00" from="461017935#1" to="144489134#1"/>
    <trip id="103" depart="206.00" from="1388627905#1" to="619979113#0"/>
    <trip id="104" depart="208.00" from="-277480564#0" to="27400639#1"/>
    <trip id="105" depart="210.00" from="989334075" to="989334074#4"/>
    <trip id="106" depart="212.00" from="-277480564#0" to="1046480748"/>
    <trip id="107" depart="214.00" from="1112271465" to="968937448#1"/>
    <trip id="108" depart="216.00" from="228196396#0" to="1030275358#1"/>
    <trip id="109" depart="218.00" from="770522074#0" to="513701210"/>
    <trip id="110" depart="220.00" from="406581244#1" to="989334074#3"/>
    <trip id="111" depart="222.00" from="417166168#1" to="-100400941#1"/>
    <trip id="112" depart="224.00" from="769489484#0" to="144489134#0"/>
    <trip id="113" depart="226.00" from="425516613#0" to="968937449#1"/>
    <trip id="114" depart="228.00" from="-513676826" to="-769489484#0"/>
    <trip id="115" depart="230.00" from="-417099350" to="397135724#1"/>
    <trip id="116" depart="232.00" from="1112271465" to="408575054"/>
    <trip id="117" depart="234.00" from="513977501#1" to="1036844055#1"/>
    <trip id="118" depart="236.00" from="417087411#2" to="111586254#3"/>
    <trip id="119" depart="238.00" from="286003244#1" to="935446073#13"/>
    <trip id="120" depart="240.00" from="254758125#3" to="144346316#10"/>
    <trip id="121" depart="242.00" from="-100400941#4" to="674757885#1"/>
    <trip id="122" depart="244.00" from="417094961#0" to="111586254#2"/>
    <trip id="123" depart="246.00" from="619979111#0" to="397135724#1"/>
    <trip id="124" depart="248.00" from="254758126#4" to="-100400941#3"/>
    <trip id="125" depart="250.00" from="-277480564#1" to="91181766#2"/>
    <trip id="126" depart="252.00" from="-619979111#1" to="-770522074#0"/>
    <trip id="127" depart="254.00" from="133733593#1" to="935446073#10"/>
    <trip id="128" depart="256.00" from="674757887#3" to="8918970"/>
    <trip id="129" depart="258.00" from="8919887" to="1046480747"/>
    <trip id="130" depart="260.00" from="674757880#1" to="91181767"/>
    <trip id="131" depart="262.00" from="254758114#7" to="417087411#2"/>
    <trip id="132" depart="264.00" from="-721174653#0" to="968937447#2"/>
    <trip id="133" depart="266.00" from="84734271#1" to="981636499#1"/>
    <trip id="134" depart="268.00" from="746808402#1" to="91181766#1"/>
    <trip id="135" depart="270.00" from="-144346316#11" to="619979110#2"/>
    <trip id="136" depart="272.00" from="144346316#9" to="968937447#2"/>
    <trip id="137" depart="274.00" from="721174653#0" to="8918970"/>
    <trip id="138" depart="276.00" from="746808402#1" to="111586254#4"/>
    <trip id="139" depart="278.00" from="674757881#2" to="-721174653#0"/>
    <trip id="140" depart="280.00" from="86303763#0" to="88597544#2"/>
    <trip id="141" depart="282.00" from="1041351160" to="772972817#1"/>
    <trip id="142" depart="284.00" from="27166406#4" to="163784093#1"/>
    <trip id="143" depart="286.00" from="674757887#2" to="1112250557#0"/>
    <trip id="144" depart="288.00" from="-144346316#11" to="1035093273#1"/>
    <trip id="145" depart="290.00" from="144346316#7" to="8918970"/>
    <trip id="146" depart="292.00" from="968937455#1" to="144346316#11"/>
    <trip id="147" depart="294.00" from="417101713#0" to="254758122#1"/>
    <trip id="148" depart="296.00" from="968937447#1" to="-769489484#0"/>
    <trip id="149" depart="298.00" from="980893266#1" to="1032777736#0"/>
    <trip id="150" depart="300.00" from="968937453#1" to="111586254#4"/>
    <trip id="151" depart="302.00" from="-417099350" to="26988009#3"/>
    <trip id="152" depart="304.00" from="619979095#0" to="224316514#1"/>
    <trip id="153" depart="306.00" from="398675749#2" to="28841122#1"/>
    <trip id="154" depart="308.00" from="25372932#5" to="397146704"/>
    <trip id="155" depart="310.00" from="1112250557#0" to="513701212#1"/>
    <trip id="156" depart="312.00" from="-100400941#3" to="968937446#3"/>
    <trip id="157" depart="314.00" from="619979111#0" to="461017935#2"/>
    <trip id="158" depart="316.00" from="228196396#0" to="-25372932#4"/>
    <trip id="159" depart="318.00" from="425624293#0" to="224316522#1"/>
    <trip id="160" depart="320.00" from="133733593#1" to="86334994#4"/>
    <trip id="161" depart="322.00" from="513977501#1" to="144489134#1"/>
    <trip id="162" depart="324.00" from="133733593#1" to="254758125#1"/>
    <trip id="163" depart="326.00" from="254758114#1" to="144346316#8"/>
    <trip id="164" depart="328.00" from="-47172306#4" to="254758131#6"/>
    <trip id="165" depart="330.00" from="111586254#4" to="377646102"/>
    <trip id="166" depart="332.00" from="-100400941#3" to="144346316#2"/>
    <trip id="167" depart="334.00" from="254758128#1" to="397146713#0"/>
    <trip id="168" depart="336.00" from="417396858" to="277480563"/>
    <trip id="169" depart="338.00" from="255330068#0" to="1046480748"/>
    <trip id="170" depart="340.00" from="27166466#2" to="935446073#11"/>
    <trip id="171" depart="342.00" from="674757887#3" to="1030276071"/>
    <trip id="172" depart="344.00" from="-28841115#1" to="290052331#1"/>
    <trip id="173" depart="346.00" from="417087411#0" to="224316522#1"/>
    <trip id="174" depart="348.00" from="769489484#0" to="619979113#0"/>
    <trip id="175" depart="350.00" from="461017935#1" to="1111706290"/>
    <trip id="176" depart="352.00" from="1032777734" to="-1236509217"/>
    <trip id="177" depart="354.00" from="1062095135#2" to="286003244#1"/>
    <trip id="178" depart="356.00" from="772972817#3" to="-277480564#0"/>
    <trip id="179" depart="358.00" from="254758122#1" to="417099350"/>
    <trip id="180" depart="360.00" from="286003244#2" to="1112271471#1"/>
    <trip id="181" depart="362.00" from="417400763#0" to="-100400941#1"/>
    <trip id="182" depart="364.00" from="619979112#3" to="674757885#1"/>
    <trip id="183" depart="366.00" from="-417099350" to="254758132#2"/>
    <trip id="184" depart="368.00" from="-8921866" to="968937455#1"/>
    <trip id="185" depart="370.00" from="28841123#1" to="-228196396#0"/>
    <trip id="186" depart="372.00" from="1062095136" to="86334994#4"/>
    <trip id="187" depart="374.00" from="27166406#2" to="746808414"/>
    <trip id="188" depart="376.00" from="440486297#1" to="989334074#3"/>
    <trip id="189" depart="378.00" from="8917695" to="415726782#2"/>
    <trip id="190" depart="380.00" from="513977501#1" to="28841117#1"/>
    <trip id="191" depart="382.00" from="770522074#0" to="377646102"/>
    <trip id="192" depart="384.00" from="8917695" to="619979112#0"/>
    <trip id="193" depart="386.00" from="27166466#5" to="111560679#4"/>
    <trip id="194" depart="388.00" from="1062095135#3" to="417101713#0"/>
    <trip id="195" depart="390.00" from="619979115#0" to="29023741#0"/>
    <trip id="196" depart="392.00" from="415726782#2" to="144346316#1"/>
    <trip id="197" depart="394.00" from="-277480564#1" to="144346316#11"/>
    <trip id="198" depart="396.00" from="1112271465" to="224316514#2"/>
    <trip id="199" depart="398.00" from="30832507#1" to="-84654238#0"/>
    <trip id="200" depart="400.00" from="1050261012" to="502795940#6"/>
    <trip id="201" depart="402.00" from="513701210" to="-228201785#2"/>
    <trip id="202" depart="404.00" from="254758114#8" to="329596844#5"/>
    <trip id="203" depart="406.00" from="254758122#1" to="1041351161"/>
    <trip id="204" depart="408.00" from="254758124#0" to="935446073#13"/>
    <trip id="205" depart="410.00" from="397143832#0" to="502795940#9"/>
    <trip id="206" depart="412.00" from="797255352#1" to="674757879#1"/>
    <trip id="207" depart="414.00" from="25372932#3" to="-100400941#1"/>
    <trip id="208" depart="416.00" from="224316520#2" to="619979113#1"/>
    <trip id="209" depart="418.00" from="254758122#3" to="619979112#2"/>
    <trip id="210" depart="420.00" from="30832507#1" to="408575054"/>
    <trip id="211" depart="422.00" from="1036844055#1" to="1062095135#2"/>
    <trip id="212" depart="424.00" from="254758131#6" to="-144346316#2"/>
    <trip id="213" depart="426.00" from="254758114#4" to="1030275359#0"/>
    <trip id="214" depart="428.00" from="27166466#1" to="-770522074#0"/>
    <trip id="215" depart="430.00" from="408572569#1" to="-144346316#10"/>
    <trip id="216" depart="432.00" from="254297761#3" to="397135729#7"/>
    <trip id="217" depart="434.00" from="-144346316#11" to="417101716#0"/>
    <trip id="218" depart="436.00" from="-513676826" to="277480563"/>
    <trip id="219" depart="438.00" from="-228201785#0" to="254297761#3"/>
    <trip id="220" depart="440.00" from="1032777737#3" to="224316520#2"/>
    <trip id="221" depart="442.00" from="619979115#0" to="254297761#3"/>
    <trip id="222" depart="444.00" from="619979112#3" to="797255352#3"/>
    <trip id="223" depart="446.00" from="1111952306#0" to="-290052331#1"/>
    <trip id="224" depart="448.00" from="-144346316#11" to="329596844#1"/>
    <trip id="225" depart="450.00" from="989334075" to="228201785#1"/>
    <trip id="226" depart="452.00" from="417166165#1" to="674757886#2"/>
    <trip id="227" depart="454.00" from="417166168#0" to="619979113#2"/>
    <trip id="228" depart="456.00" from="968937450#1" to="1035093273#1"/>
    <trip id="229" depart="458.00" from="-144346316#11" to="1024170338#1"/>
    <trip id="230" depart="460.00" from="-47172306#4" to="461017935#1"/>
    <trip id="231" depart="462.00" from="397135724#0" to="1062095135#2"/>
    <trip id="232" depart="464.00" from="512523366#1" to="674757879#1"/>
    <trip id="233" depart="466.00" from="-8918970" to="408575054"/>
    <trip id="234" depart="468.00" from="619979112#1" to="-769489484#0"/>
    <trip id="235" depart="470.00" from="769489484#0" to="980893267#1"/>
    <trip id="236" depart="472.00" from="-417099350" to="-144346316#1"/>
    <trip id="237" depart="474.00" from="968937451#4" to="254758115#2"/>
    <trip id="238" depart="476.00" from="513977501#1" to="-28841115#1"/>
    <trip id="239" depart="478.00" from="502795940#10" to="417094964"/>
    <trip id="240" depart="480.00" from="-30832504#1" to="674757885#1"/>
    <trip id="241" depart="482.00" from="772972817#3" to="408572569#1"/>
    <trip id="242" depart="484.00" from="-47172306#3" to="989334074#0"/>
    <trip id="243" depart="486.00" from="674757881#2" to="228196396#1"/>
    <trip id="244" depart="488.00" from="254758126#4" to="254297759#1"/>
    <trip id="245" depart="490.00" from="28841115#1" to="225806055"/>
    <trip id="246" depart="492.00" from="772972817#3" to="772972818"/>
    <trip id="247" depart="494.00" from="417087411#4" to="797255352#2"/>
    <trip id="248" depart="496.00" from="513701211#2" to="26988009#4"/>
    <trip id="249" depart="498.00" from="619979110#0" to="980893267#1"/>
</routes>
